new line.
add a new line in branch dev.
Create a modify.
